644611
  -OEChem-03012013432D

 62 66  0     1  0  0  0  0  0999 V2000
    7.9548    2.1639    0.0000 O   0  0  0  0  0  0  0  0  0  0  0  0
    7.7176   -1.5331    0.0000 O   0  0  0  0  0  0  0  0  0  0  0  0
    5.4034   -0.2507    0.0000 O   0  0  0  0  0  0  0  0  0  0  0  0
   11.2744    0.9866    0.0000 O   0  0  0  0  0  0  0  0  0  0  0  0
    2.4052    1.8794    0.0000 O   0  0  0  0  0  0  0  0  0  0  0  0
    7.3604    0.1617    0.0000 N   0  0  0  0  0  0  0  0  0  0  0  0
    5.7606   -1.9456    0.0000 N   0  0  0  0  0  0  0  0  0  0  0  0
    5.0462    1.4441    0.0000 N   0  0  0  0  0  0  0  0  0  0  0  0
    6.3442   -2.7503    0.0000 N   0  0  0  0  0  0  0  0  0  0  0  0
    5.7606   -3.5550    0.0000 N   0  0  0  0  0  0  0  0  0  0  0  0
    6.6926    0.9060    0.0000 C   0  0  3  0  0  0  0  0  0  0  0  0
    7.0032    1.8565    0.0000 C   0  0  0  0  0  0  0  0  0  0  0  0
    8.3389    0.3679    0.0000 C   0  0  0  0  0  0  0  0  0  0  0  0
    7.0497   -0.7888    0.0000 C   0  0  0  0  0  0  0  0  0  0  0  0
    5.7140    0.6998    0.0000 C   0  0  0  0  0  0  0  0  0  0  0  0
    6.0712   -0.9950    0.0000 C   0  0  0  0  0  0  0  0  0  0  0  0
    6.4168    2.6666    0.0000 C   0  0  0  0  0  0  0  0  0  0  0  0
    9.0068   -0.3764    0.0000 C   0  0  0  0  0  0  0  0  0  0  0  0
    8.6496    1.3184    0.0000 C   0  0  0  0  0  0  0  0  0  0  0  0
    4.8144   -2.2503    0.0000 C   0  0  0  0  0  0  0  0  0  0  0  0
    7.9565    3.1639    0.0000 C   0  0  0  0  0  0  0  0  0  0  0  0
    7.0060    3.4746    0.0000 C   0  0  0  0  0  0  0  0  0  0  0  0
    4.0677    1.2379    0.0000 C   0  0  0  0  0  0  0  0  0  0  0  0
    4.8144   -3.2503    0.0000 C   0  0  0  0  0  0  0  0  0  0  0  0
    9.9852   -0.1702    0.0000 C   0  0  0  0  0  0  0  0  0  0  0  0
    9.6281    1.5247    0.0000 C   0  0  0  0  0  0  0  0  0  0  0  0
   10.2959    0.7804    0.0000 C   0  0  0  0  0  0  0  0  0  0  0  0
    3.9483   -1.7503    0.0000 C   0  0  0  0  0  0  0  0  0  0  0  0
    8.7666    3.7503    0.0000 C   0  0  0  0  0  0  0  0  0  0  0  0
    3.3999    1.9822    0.0000 C   0  0  0  0  0  0  0  0  0  0  0  0
    3.9483   -3.7503    0.0000 C   0  0  0  0  0  0  0  0  0  0  0  0
    3.0823   -2.2503    0.0000 C   0  0  0  0  0  0  0  0  0  0  0  0
    3.0823   -3.2503    0.0000 C   0  0  0  0  0  0  0  0  0  0  0  0
    3.6095    2.9600    0.0000 C   0  0  0  0  0  0  0  0  0  0  0  0
    2.7443    3.4615    0.0000 C   0  0  0  0  0  0  0  0  0  0  0  0
    2.0000    2.7936    0.0000 C   0  0  0  0  0  0  0  0  0  0  0  0
   11.9423    0.2423    0.0000 C   0  0  0  0  0  0  0  0  0  0  0  0
    6.4999    0.3167    0.0000 H   0  0  0  0  0  0  0  0  0  0  0  0
    6.0507   -0.3754    0.0000 H   0  0  0  0  0  0  0  0  0  0  0  0
    5.4574   -0.9077    0.0000 H   0  0  0  0  0  0  0  0  0  0  0  0
    5.7968    2.6676    0.0000 H   0  0  0  0  0  0  0  0  0  0  0  0
    5.2388    2.0334    0.0000 H   0  0  0  0  0  0  0  0  0  0  0  0
    8.8141   -0.9657    0.0000 H   0  0  0  0  0  0  0  0  0  0  0  0
    8.2355    1.7799    0.0000 H   0  0  0  0  0  0  0  0  0  0  0  0
    6.8154    4.0646    0.0000 H   0  0  0  0  0  0  0  0  0  0  0  0
    3.5413    0.9102    0.0000 H   0  0  0  0  0  0  0  0  0  0  0  0
    4.2990    0.6626    0.0000 H   0  0  0  0  0  0  0  0  0  0  0  0
   10.3993   -0.6316    0.0000 H   0  0  0  0  0  0  0  0  0  0  0  0
    9.8207    2.1140    0.0000 H   0  0  0  0  0  0  0  0  0  0  0  0
    3.9483   -1.1303    0.0000 H   0  0  0  0  0  0  0  0  0  0  0  0
    9.1301    3.2481    0.0000 H   0  0  0  0  0  0  0  0  0  0  0  0
    9.2688    4.1138    0.0000 H   0  0  0  0  0  0  0  0  0  0  0  0
    8.4030    4.2525    0.0000 H   0  0  0  0  0  0  0  0  0  0  0  0
    3.9483   -4.3703    0.0000 H   0  0  0  0  0  0  0  0  0  0  0  0
    2.5454   -1.9403    0.0000 H   0  0  0  0  0  0  0  0  0  0  0  0
    2.5454   -3.5603    0.0000 H   0  0  0  0  0  0  0  0  0  0  0  0
    4.1763    3.2112    0.0000 H   0  0  0  0  0  0  0  0  0  0  0  0
    2.6806    4.0782    0.0000 H   0  0  0  0  0  0  0  0  0  0  0  0
    1.3938    2.9236    0.0000 H   0  0  0  0  0  0  0  0  0  0  0  0
   11.4808   -0.1718    0.0000 H   0  0  0  0  0  0  0  0  0  0  0  0
   12.3563   -0.2192    0.0000 H   0  0  0  0  0  0  0  0  0  0  0  0
   12.4037    0.6563    0.0000 H   0  0  0  0  0  0  0  0  0  0  0  0
  1 12  1  0  0  0  0
  1 21  1  0  0  0  0
  2 14  2  0  0  0  0
  3 15  2  0  0  0  0
  4 27  1  0  0  0  0
  4 37  1  0  0  0  0
  5 30  1  0  0  0  0
  5 36  1  0  0  0  0
  6 11  1  0  0  0  0
  6 13  1  0  0  0  0
  6 14  1  0  0  0  0
  7  9  1  0  0  0  0
  7 16  1  0  0  0  0
  7 20  1  0  0  0  0
  8 15  1  0  0  0  0
  8 23  1  0  0  0  0
  8 42  1  0  0  0  0
  9 10  2  0  0  0  0
 10 24  1  0  0  0  0
 11 12  1  0  0  0  0
 11 15  1  0  0  0  0
 11 38  1  0  0  0  0
 12 17  2  0  0  0  0
 13 18  2  0  0  0  0
 13 19  1  0  0  0  0
 14 16  1  0  0  0  0
 16 39  1  0  0  0  0
 16 40  1  0  0  0  0
 17 22  1  0  0  0  0
 17 41  1  0  0  0  0
 18 25  1  0  0  0  0
 18 43  1  0  0  0  0
 19 26  2  0  0  0  0
 19 44  1  0  0  0  0
 20 24  1  0  0  0  0
 20 28  2  0  0  0  0
 21 22  2  0  0  0  0
 21 29  1  0  0  0  0
 22 45  1  0  0  0  0
 23 30  1  0  0  0  0
 23 46  1  0  0  0  0
 23 47  1  0  0  0  0
 24 31  2  0  0  0  0
 25 27  2  0  0  0  0
 25 48  1  0  0  0  0
 26 27  1  0  0  0  0
 26 49  1  0  0  0  0
 28 32  1  0  0  0  0
 28 50  1  0  0  0  0
 29 51  1  0  0  0  0
 29 52  1  0  0  0  0
 29 53  1  0  0  0  0
 30 34  2  0  0  0  0
 31 33  1  0  0  0  0
 31 54  1  0  0  0  0
 32 33  2  0  0  0  0
 32 55  1  0  0  0  0
 33 56  1  0  0  0  0
 34 35  1  0  0  0  0
 34 57  1  0  0  0  0
 35 36  2  0  0  0  0
 35 58  1  0  0  0  0
 36 59  1  0  0  0  0
 37 60  1  0  0  0  0
 37 61  1  0  0  0  0
 37 62  1  0  0  0  0
M  END
> <PUBCHEM_COMPOUND_CID>
644611

> <PUBCHEM_COMPOUND_CANONICALIZED>
1

> <PUBCHEM_CACTVS_COMPLEXITY>
778

> <PUBCHEM_CACTVS_HBOND_ACCEPTOR>
7

> <PUBCHEM_CACTVS_HBOND_DONOR>
1

> <PUBCHEM_CACTVS_ROTATABLE_BOND>
9

> <PUBCHEM_CACTVS_SUBSKEYS>
AAADceB7uAAAAAAAAAAAAAAAAAAAAWJEgAAwYAAAAAAAAFgB/gAAHgAYAAAACCzhlgYyxrPIBECqAa1y1ACCDAQlsgAY2KG+fNgOZr7MtbuXOSjm9hHY6Ye42QOQAEAAAAAAACAAgAAAAAAAQAAAAAAAAA==

> <PUBCHEM_IUPAC_OPENEYE_NAME>
2-(N-[2-(benzotriazol-1-yl)acetyl]-4-methoxy-anilino)-N-(2-furylmethyl)-2-(5-methyl-2-furyl)acetamide

> <PUBCHEM_IUPAC_CAS_NAME>
2-(N-[2-(1-benzotriazolyl)-1-oxoethyl]-4-methoxyanilino)-N-(2-furanylmethyl)-2-(5-methyl-2-furanyl)acetamide

> <PUBCHEM_IUPAC_NAME_MARKUP>
2-(<I>N</I>-[2-(benzotriazol-1-yl)acetyl]-4-methoxyanilino)-<I>N</I>-(furan-2-ylmethyl)-2-(5-methylfuran-2-yl)acetamide

> <PUBCHEM_IUPAC_NAME>
2-(N-[2-(benzotriazol-1-yl)acetyl]-4-methoxyanilino)-N-(furan-2-ylmethyl)-2-(5-methylfuran-2-yl)acetamide

> <PUBCHEM_IUPAC_SYSTEMATIC_NAME>
2-[2-(benzotriazol-1-yl)ethanoyl-(4-methoxyphenyl)amino]-N-(furan-2-ylmethyl)-2-(5-methylfuran-2-yl)ethanamide

> <PUBCHEM_IUPAC_TRADITIONAL_NAME>
2-(N-[2-(benzotriazol-1-yl)acetyl]-4-methoxy-anilino)-N-(2-furfuryl)-2-(5-methyl-2-furyl)acetamide

> <PUBCHEM_IUPAC_INCHI>
InChI=1S/C27H25N5O5/c1-18-9-14-24(37-18)26(27(34)28-16-21-6-5-15-36-21)32(19-10-12-20(35-2)13-11-19)25(33)17-31-23-8-4-3-7-22(23)29-30-31/h3-15,26H,16-17H2,1-2H3,(H,28,34)

> <PUBCHEM_IUPAC_INCHIKEY>
MOENJKIXVUIEDM-UHFFFAOYSA-N

> <PUBCHEM_XLOGP3_AA>
3.4

> <PUBCHEM_EXACT_MASS>
499.185569

> <PUBCHEM_MOLECULAR_FORMULA>
C27H25N5O5

> <PUBCHEM_MOLECULAR_WEIGHT>
499.5

> <PUBCHEM_OPENEYE_CAN_SMILES>
CC1=CC=C(O1)C(C(=O)NCC2=CC=CO2)N(C3=CC=C(C=C3)OC)C(=O)CN4C5=CC=CC=C5N=N4

> <PUBCHEM_OPENEYE_ISO_SMILES>
CC1=CC=C(O1)C(C(=O)NCC2=CC=CO2)N(C3=CC=C(C=C3)OC)C(=O)CN4C5=CC=CC=C5N=N4

> <PUBCHEM_CACTVS_TPSA>
116

> <PUBCHEM_MONOISOTOPIC_WEIGHT>
499.185569

> <PUBCHEM_TOTAL_CHARGE>
0

> <PUBCHEM_HEAVY_ATOM_COUNT>
37

> <PUBCHEM_ATOM_DEF_STEREO_COUNT>
0

> <PUBCHEM_ATOM_UDEF_STEREO_COUNT>
1

> <PUBCHEM_BOND_DEF_STEREO_COUNT>
0

> <PUBCHEM_BOND_UDEF_STEREO_COUNT>
0

> <PUBCHEM_ISOTOPIC_ATOM_COUNT>
0

> <PUBCHEM_COMPONENT_COUNT>
1

> <PUBCHEM_CACTVS_TAUTO_COUNT>
-1

> <PUBCHEM_COORDINATE_TYPE>
1
5
255

> <PUBCHEM_BONDANNOTATIONS>
1  12  8
1  21  8
10  24  8
11  15  3
12  17  8
13  18  8
13  19  8
17  22  8
18  25  8
19  26  8
20  24  8
20  28  8
21  22  8
24  31  8
25  27  8
26  27  8
28  32  8
30  34  8
31  33  8
32  33  8
34  35  8
35  36  8
5  30  8
5  36  8
7  20  8
7  9  8
9  10  8

$$$$
